<?xml version="1.0" encoding="UTF-8"?>
<routes xmlns:xsi="http://www.w3.org/2001/XMLSchema-instance" xsi:noNamespaceSchemaLocation="http://sumo.dlr.de/xsd/routes_file.xsd">
    <vType id="car" accel="2.6" decel="4.5" sigma="0.5" length="5" minGap="2.5" maxSpeed="16.67" guiShape="passenger"/>

    <!-- Define a single route using the new edge ID -->
    <route id="single_route" edges="main_road"/>

    <!-- Assign a single vehicle to the route -->
    <vehicle id="0" type="car" route="single_route" depart="0" color="1,0,0"/>
</routes> 